Azadirachtin
 OpenBabel08062623503D

 95102  0  0  1  0  0  0  0  0999 V2000
    2.6960   -0.3686   -6.0863 C   0  0  0  0  0  0  0  0  0  0  0  0
    2.7119    0.2033   -4.7064 C   0  0  0  0  0  0  0  0  0  0  0  0
    3.3510   -0.3174   -3.6498 C   0  0  0  0  0  0  0  0  0  0  0  0
    4.2448   -1.5236   -3.7027 C   0  0  0  0  0  0  0  0  0  0  0  0
    3.3107    0.3779   -2.3408 C   0  0  0  0  0  0  0  0  0  0  0  0
    4.2303    0.2758   -1.5363 O   0  0  0  0  0  0  0  0  0  0  0  0
    2.1766    1.1390   -2.1650 O   0  0  0  0  0  0  0  0  0  0  0  0
    2.2317    1.9391   -0.9853 C   0  0  1  0  0  0  0  0  0  0  0  0
    2.7970    3.3268   -1.3401 C   0  0  0  0  0  0  0  0  0  0  0  0
    3.3590    3.9116   -0.0338 C   0  0  2  0  0  0  0  0  0  0  0  0
    2.2545    4.0708    1.0193 C   0  0  1  0  0  0  0  0  0  0  0  0
    1.5475    5.4087    1.2962 C   0  0  0  0  0  0  0  0  0  0  0  0
    0.1856    5.0471    1.7719 O   0  0  0  0  0  0  0  0  0  0  0  0
    0.1131    3.6032    1.8001 C   0  0  2  0  0  0  0  0  0  0  0  0
    0.9850    3.2971    0.6374 C   0  0  2  0  0  0  0  0  0  0  0  0
    0.9680    1.9379   -0.0248 C   0  0  2  0  0  0  0  0  0  0  0  0
    1.0683    0.6068    0.7057 C   0  0  0  0  0  0  0  0  0  0  0  0
    0.7013   -0.3223   -0.3394 O   0  0  0  0  0  0  0  0  0  0  0  0
   -0.4378    0.2116   -1.0173 C   0  0  1  0  0  0  0  0  0  0  0  0
   -0.4928    1.7333   -0.6029 C   0  0  1  0  0  0  0  0  0  0  0  0
   -1.7394    2.2820    0.3657 C   0  0  2  0  0  0  0  0  0  0  0  0
   -1.1808    2.8029    1.7628 C   0  0  2  0  0  0  0  0  0  0  0  0
   -2.0761    3.3183    2.7310 O   0  0  0  0  0  0  0  0  0  0  0  0
   -2.7064    1.1174    0.7755 C   0  0  0  0  0  0  0  0  0  0  0  0
   -2.6847    3.3326   -0.3400 C   0  0  1  0  0  0  0  0  0  0  0  0
   -3.9314    3.8333    0.4123 C   0  0  2  0  0  0  0  0  0  0  0  0
   -4.8096    4.5185   -0.6419 C   0  0  0  0  0  0  0  0  0  0  0  0
   -3.7347    5.3103   -1.3935 C   0  0  2  0  0  0  0  0  0  0  0  0
   -2.5926    4.2689   -1.5602 C   0  0  2  0  0  0  0  0  0  0  0  0
   -3.0309    2.9107   -1.6789 O   0  0  0  0  0  0  0  0  0  0  0  0
   -1.4954    4.5784   -2.5172 C   0  0  0  0  0  0  0  0  0  0  0  0
   -3.2672    6.4695   -0.4830 C   0  0  1  0  0  0  0  0  0  0  0  0
   -4.2739    7.4500    0.0240 C   0  0  0  0  0  0  0  0  0  0  0  0
   -4.0336    7.6817    1.3121 C   0  0  0  0  0  0  0  0  0  0  0  0
   -2.9652    6.9965    1.8536 O   0  0  0  0  0  0  0  0  0  0  0  0
   -2.8056    5.9185    0.9034 C   0  0  1  0  0  0  0  0  0  0  0  0
   -3.5927    4.8115    1.3818 O   0  0  0  0  0  0  0  0  0  0  0  0
   -2.2575    7.2201   -1.1641 O   0  0  0  0  0  0  0  0  0  0  0  0
   -0.5768    0.0869   -2.5893 C   0  0  0  0  0  0  0  0  0  0  0  0
    0.0066   -0.7167   -3.2992 O   0  0  0  0  0  0  0  0  0  0  0  0
   -1.5365    0.9599   -3.0142 O   0  0  0  0  0  0  0  0  0  0  0  0
   -1.8132    1.0935   -4.4069 C   0  0  0  0  0  0  0  0  0  0  0  0
   -1.4526   -0.6451   -0.5342 O   0  0  0  0  0  0  0  0  0  0  0  0
    2.8533    3.5208    2.3103 C   0  0  0  0  0  0  0  0  0  0  0  0
    2.7728    2.3378    2.6245 O   0  0  0  0  0  0  0  0  0  0  0  0
    3.4859    4.4733    3.0367 O   0  0  0  0  0  0  0  0  0  0  0  0
    3.9398    4.0117    4.3090 C   0  0  0  0  0  0  0  0  0  0  0  0
    4.1845    5.0572   -0.2691 O   0  0  0  0  0  0  0  0  0  0  0  0
    5.4728    4.7074   -0.6170 C   0  0  0  0  0  0  0  0  0  0  0  0
    5.8894    3.5633   -0.7496 O   0  0  0  0  0  0  0  0  0  0  0  0
    6.3503    5.9013   -0.7890 C   0  0  0  0  0  0  0  0  0  0  0  0
    3.1717    0.3286   -6.7817 H   0  0  0  0  0  0  0  0  0  0  0  0
    3.2160   -1.3275   -6.1545 H   0  0  0  0  0  0  0  0  0  0  0  0
    1.6610   -0.5242   -6.4047 H   0  0  0  0  0  0  0  0  0  0  0  0
    2.1250    1.1163   -4.5923 H   0  0  0  0  0  0  0  0  0  0  0  0
    5.0784   -1.3534   -4.3921 H   0  0  0  0  0  0  0  0  0  0  0  0
    3.6789   -2.4006   -4.0294 H   0  0  0  0  0  0  0  0  0  0  0  0
    4.6787   -1.7719   -2.7294 H   0  0  0  0  0  0  0  0  0  0  0  0
    3.0064    1.5169   -0.3354 H   0  0  0  0  0  0  0  0  0  0  0  0
    2.0461    3.9772   -1.8037 H   0  0  0  0  0  0  0  0  0  0  0  0
    3.5902    3.2363   -2.0918 H   0  0  0  0  0  0  0  0  0  0  0  0
    4.0257    3.1400    0.3758 H   0  0  0  0  0  0  0  0  0  0  0  0
    1.4109    5.9983    0.3803 H   0  0  0  0  0  0  0  0  0  0  0  0
    2.0037    6.0538    2.0503 H   0  0  0  0  0  0  0  0  0  0  0  0
    0.5384    3.3536    2.7778 H   0  0  0  0  0  0  0  0  0  0  0  0
    0.5569    3.9090   -0.1848 H   0  0  0  0  0  0  0  0  0  0  0  0
    0.3782    0.4737    1.5397 H   0  0  0  0  0  0  0  0  0  0  0  0
    2.0650    0.3486    1.0727 H   0  0  0  0  0  0  0  0  0  0  0  0
   -0.5025    2.3555   -1.4941 H   0  0  0  0  0  0  0  0  0  0  0  0
   -0.8745    1.8700    2.2496 H   0  0  0  0  0  0  0  0  0  0  0  0
   -2.9007    2.8112    2.7498 H   0  0  0  0  0  0  0  0  0  0  0  0
   -3.2297    0.7045   -0.0933 H   0  0  0  0  0  0  0  0  0  0  0  0
   -2.1776    0.3324    1.3264 H   0  0  0  0  0  0  0  0  0  0  0  0
   -3.4966    1.4247    1.4631 H   0  0  0  0  0  0  0  0  0  0  0  0
   -4.5145    3.0470    0.8913 H   0  0  0  0  0  0  0  0  0  0  0  0
   -5.2892    3.7857   -1.3008 H   0  0  0  0  0  0  0  0  0  0  0  0
   -5.5906    5.1455   -0.2025 H   0  0  0  0  0  0  0  0  0  0  0  0
   -4.0924    5.6702   -2.3638 H   0  0  0  0  0  0  0  0  0  0  0  0
   -1.0235    3.6894   -2.9397 H   0  0  0  0  0  0  0  0  0  0  0  0
   -0.7217    5.1994   -2.0626 H   0  0  0  0  0  0  0  0  0  0  0  0
   -1.9062    5.1228   -3.3776 H   0  0  0  0  0  0  0  0  0  0  0  0
   -5.0726    7.9060   -0.5451 H   0  0  0  0  0  0  0  0  0  0  0  0
   -4.5245    8.3381    2.0099 H   0  0  0  0  0  0  0  0  0  0  0  0
   -1.7547    5.6460    0.8611 H   0  0  0  0  0  0  0  0  0  0  0  0
   -2.7071    7.7780   -1.8211 H   0  0  0  0  0  0  0  0  0  0  0  0
   -2.8212    0.7156   -4.5975 H   0  0  0  0  0  0  0  0  0  0  0  0
   -1.8057    2.1614   -4.6502 H   0  0  0  0  0  0  0  0  0  0  0  0
   -1.0851    0.5856   -5.0418 H   0  0  0  0  0  0  0  0  0  0  0  0
   -1.0252   -1.5208   -0.5739 H   0  0  0  0  0  0  0  0  0  0  0  0
    3.1464    3.4721    4.8384 H   0  0  0  0  0  0  0  0  0  0  0  0
    4.8190    3.3759    4.1769 H   0  0  0  0  0  0  0  0  0  0  0  0
    4.2149    4.8833    4.9075 H   0  0  0  0  0  0  0  0  0  0  0  0
    6.5396    6.3645    0.1811 H   0  0  0  0  0  0  0  0  0  0  0  0
    5.8979    6.6030   -1.4903 H   0  0  0  0  0  0  0  0  0  0  0  0
    7.3068    5.5684   -1.2093 H   0  0  0  0  0  0  0  0  0  0  0  0
  1  2  1  0  0  0  0
  1 52  1  0  0  0  0
  1 53  1  0  0  0  0
  1 54  1  0  0  0  0
  2  3  2  0  0  0  0
  2 55  1  0  0  0  0
  3  4  1  0  0  0  0
  3  5  1  0  0  0  0
  4 56  1  0  0  0  0
  4 57  1  0  0  0  0
  4 58  1  0  0  0  0
  5  6  2  0  0  0  0
  5  7  1  0  0  0  0
  7  8  1  0  0  0  0
  8  9  1  0  0  0  0
  8 16  1  0  0  0  0
  8 59  1  1  0  0  0
  9 10  1  0  0  0  0
  9 60  1  0  0  0  0
  9 61  1  0  0  0  0
 10 11  1  0  0  0  0
 10 48  1  0  0  0  0
 10 62  1  1  0  0  0
 11 12  1  0  0  0  0
 11 15  1  0  0  0  0
 11 44  1  1  0  0  0
 12 13  1  0  0  0  0
 12 63  1  0  0  0  0
 12 64  1  0  0  0  0
 13 14  1  0  0  0  0
 14 15  1  0  0  0  0
 14 22  1  0  0  0  0
 14 65  1  1  0  0  0
 15 16  1  0  0  0  0
 15 66  1  6  0  0  0
 16 17  1  1  0  0  0
 16 20  1  0  0  0  0
 17 18  1  0  0  0  0
 17 67  1  0  0  0  0
 17 68  1  0  0  0  0
 18 19  1  0  0  0  0
 19 20  1  0  0  0  0
 19 39  1  6  0  0  0
 19 43  1  0  0  0  0
 20 21  1  0  0  0  0
 20 69  1  6  0  0  0
 21 22  1  0  0  0  0
 21 24  1  1  0  0  0
 21 25  1  0  0  0  0
 22 23  1  0  0  0  0
 22 70  1  1  0  0  0
 23 71  1  0  0  0  0
 24 72  1  0  0  0  0
 24 73  1  0  0  0  0
 24 74  1  0  0  0  0
 25 26  1  0  0  0  0
 25 29  1  0  0  0  0
 25 30  1  6  0  0  0
 26 27  1  0  0  0  0
 26 37  1  0  0  0  0
 26 75  1  1  0  0  0
 27 28  1  0  0  0  0
 27 76  1  0  0  0  0
 27 77  1  0  0  0  0
 28 29  1  0  0  0  0
 28 32  1  0  0  0  0
 28 78  1  6  0  0  0
 29 30  1  0  0  0  0
 29 31  1  6  0  0  0
 31 79  1  0  0  0  0
 31 80  1  0  0  0  0
 31 81  1  0  0  0  0
 32 33  1  0  0  0  0
 32 36  1  0  0  0  0
 32 38  1  6  0  0  0
 33 34  2  0  0  0  0
 33 82  1  0  0  0  0
 34 35  1  0  0  0  0
 34 83  1  0  0  0  0
 35 36  1  0  0  0  0
 36 37  1  0  0  0  0
 36 84  1  6  0  0  0
 38 85  1  0  0  0  0
 39 40  2  0  0  0  0
 39 41  1  0  0  0  0
 41 42  1  0  0  0  0
 42 86  1  0  0  0  0
 42 87  1  0  0  0  0
 42 88  1  0  0  0  0
 43 89  1  0  0  0  0
 44 45  2  0  0  0  0
 44 46  1  0  0  0  0
 46 47  1  0  0  0  0
 47 90  1  0  0  0  0
 47 91  1  0  0  0  0
 47 92  1  0  0  0  0
 48 49  1  0  0  0  0
 49 50  2  0  0  0  0
 49 51  1  0  0  0  0
 51 93  1  0  0  0  0
 51 94  1  0  0  0  0
 51 95  1  0  0  0  0
M  END
$$$$
