Nimbolide
 OpenBabel08062623473D

 64 69  0  0  1  0  0  0  0  0999 V2000
    2.2190    6.6053    2.6665 C   0  0  0  0  0  0  0  0  0  0  0  0
    2.4372    6.2295    1.2360 C   0  0  0  0  0  0  0  0  0  0  0  0
    1.5825    5.8214    0.2707 C   0  0  0  0  0  0  0  0  0  0  0  0
    2.3370    5.1789   -0.8723 C   0  0  1  0  0  0  0  0  0  0  0  0
    3.5869    4.7078   -0.1253 C   0  0  0  0  0  0  0  0  0  0  0  0
    3.8673    5.8772    0.8280 C   0  0  1  0  0  0  0  0  0  0  0  0
    4.6141    6.9928    0.1699 C   0  0  0  0  0  0  0  0  0  0  0  0
    4.3832    8.3524    0.2462 C   0  0  0  0  0  0  0  0  0  0  0  0
    5.3013    9.0417   -0.4759 O   0  0  0  0  0  0  0  0  0  0  0  0
    6.1306    8.1279   -1.0361 C   0  0  0  0  0  0  0  0  0  0  0  0
    5.7442    6.8576   -0.6910 C   0  0  0  0  0  0  0  0  0  0  0  0
    1.4998    4.1100   -1.3214 O   0  0  0  0  0  0  0  0  0  0  0  0
    0.6511    3.8678   -0.1956 C   0  0  1  0  0  0  0  0  0  0  0  0
    0.1732    5.2747    0.2928 C   0  0  2  0  0  0  0  0  0  0  0  0
   -0.8928    5.8596   -0.7899 C   0  0  1  0  0  0  0  0  0  0  0  0
   -2.2661    5.0090   -0.7267 C   0  0  2  0  0  0  0  0  0  0  0  0
   -1.7661    3.5273   -0.8965 C   0  0  1  0  0  0  0  0  0  0  0  0
   -0.4966    2.9301   -0.3739 C   0  0  1  0  0  0  0  0  0  0  0  0
   -0.3477    1.7650   -1.1972 O   0  0  0  0  0  0  0  0  0  0  0  0
   -1.6490    1.3299   -1.5001 C   0  0  0  0  0  0  0  0  0  0  0  0
   -1.8981    0.3466   -2.1720 O   0  0  0  0  0  0  0  0  0  0  0  0
   -2.6373    2.2739   -0.7644 C   0  0  2  0  0  0  0  0  0  0  0  0
   -4.0218    2.5632   -1.2759 C   0  0  0  0  0  0  0  0  0  0  0  0
   -4.3502    3.8037   -1.7101 C   0  0  0  0  0  0  0  0  0  0  0  0
   -3.3076    4.9079   -1.8785 C   0  0  0  0  0  0  0  0  0  0  0  0
   -3.3744    5.6730   -2.8290 O   0  0  0  0  0  0  0  0  0  0  0  0
   -2.7569    1.6780    0.6676 C   0  0  0  0  0  0  0  0  0  0  0  0
   -3.2430    5.7355    0.2402 C   0  0  0  0  0  0  0  0  0  0  0  0
   -0.9413    7.4212   -0.8519 C   0  0  0  0  0  0  0  0  0  0  0  0
   -1.2941    8.2599    0.3661 C   0  0  0  0  0  0  0  0  0  0  0  0
   -1.5058    7.8263    1.4922 O   0  0  0  0  0  0  0  0  0  0  0  0
   -1.3696    9.5757    0.0367 O   0  0  0  0  0  0  0  0  0  0  0  0
   -1.7650   10.4171    1.1267 C   0  0  0  0  0  0  0  0  0  0  0  0
   -0.4184    5.0685    1.7008 C   0  0  0  0  0  0  0  0  0  0  0  0
    2.4748    5.7606    3.3172 H   0  0  0  0  0  0  0  0  0  0  0  0
    2.8652    7.4443    2.9428 H   0  0  0  0  0  0  0  0  0  0  0  0
    1.1975    6.9117    2.8881 H   0  0  0  0  0  0  0  0  0  0  0  0
    2.5532    5.8708   -1.6907 H   0  0  0  0  0  0  0  0  0  0  0  0
    3.3893    3.7975    0.4608 H   0  0  0  0  0  0  0  0  0  0  0  0
    4.4064    4.4422   -0.7979 H   0  0  0  0  0  0  0  0  0  0  0  0
    4.4427    5.5155    1.6910 H   0  0  0  0  0  0  0  0  0  0  0  0
    3.6412    8.9557    0.7508 H   0  0  0  0  0  0  0  0  0  0  0  0
    6.9312    8.5256   -1.6421 H   0  0  0  0  0  0  0  0  0  0  0  0
    6.2200    5.9418   -1.0162 H   0  0  0  0  0  0  0  0  0  0  0  0
    1.2904    3.3779    0.5508 H   0  0  0  0  0  0  0  0  0  0  0  0
   -0.4877    5.6253   -1.7884 H   0  0  0  0  0  0  0  0  0  0  0  0
   -1.5150    3.5704   -1.9875 H   0  0  0  0  0  0  0  0  0  0  0  0
   -0.6135    2.5510    0.6447 H   0  0  0  0  0  0  0  0  0  0  0  0
   -4.7648    1.8098   -1.1495 H   0  0  0  0  0  0  0  0  0  0  0  0
   -5.3966    4.0744   -1.7878 H   0  0  0  0  0  0  0  0  0  0  0  0
   -2.6586    2.4585    1.4272 H   0  0  0  0  0  0  0  0  0  0  0  0
   -2.0094    0.9176    0.8687 H   0  0  0  0  0  0  0  0  0  0  0  0
   -3.7301    1.1772    0.8212 H   0  0  0  0  0  0  0  0  0  0  0  0
   -3.3976    6.7581   -0.1593 H   0  0  0  0  0  0  0  0  0  0  0  0
   -2.9160    5.8593    1.2669 H   0  0  0  0  0  0  0  0  0  0  0  0
   -4.2702    5.3556    0.2740 H   0  0  0  0  0  0  0  0  0  0  0  0
   -1.6312    7.7127   -1.6536 H   0  0  0  0  0  0  0  0  0  0  0  0
    0.0569    7.7680   -1.1543 H   0  0  0  0  0  0  0  0  0  0  0  0
   -1.0158   10.3916    1.9256 H   0  0  0  0  0  0  0  0  0  0  0  0
   -1.8431   11.4437    0.7583 H   0  0  0  0  0  0  0  0  0  0  0  0
   -2.7460   10.1157    1.5106 H   0  0  0  0  0  0  0  0  0  0  0  0
   -0.5286    5.9936    2.2567 H   0  0  0  0  0  0  0  0  0  0  0  0
   -1.3961    4.5863    1.6813 H   0  0  0  0  0  0  0  0  0  0  0  0
    0.2070    4.4066    2.3094 H   0  0  0  0  0  0  0  0  0  0  0  0
  1  2  1  0  0  0  0
  1 35  1  0  0  0  0
  1 36  1  0  0  0  0
  1 37  1  0  0  0  0
  2  3  2  0  0  0  0
  2  6  1  0  0  0  0
  3  4  1  0  0  0  0
  3 14  1  0  0  0  0
  4  5  1  0  0  0  0
  4 12  1  0  0  0  0
  4 38  1  6  0  0  0
  5  6  1  0  0  0  0
  5 39  1  0  0  0  0
  5 40  1  0  0  0  0
  6  7  1  0  0  0  0
  6 41  1  1  0  0  0
  7  8  2  0  0  0  0
  7 11  1  0  0  0  0
  8  9  1  0  0  0  0
  8 42  1  0  0  0  0
  9 10  1  0  0  0  0
 10 11  2  0  0  0  0
 10 43  1  0  0  0  0
 11 44  1  0  0  0  0
 12 13  1  0  0  0  0
 13 14  1  0  0  0  0
 13 18  1  0  0  0  0
 13 45  1  1  0  0  0
 14 15  1  0  0  0  0
 14 34  1  1  0  0  0
 15 16  1  0  0  0  0
 15 29  1  0  0  0  0
 15 46  1  6  0  0  0
 16 17  1  0  0  0  0
 16 25  1  0  0  0  0
 16 28  1  1  0  0  0
 17 18  1  0  0  0  0
 17 22  1  0  0  0  0
 17 47  1  6  0  0  0
 18 19  1  0  0  0  0
 18 48  1  1  0  0  0
 19 20  1  0  0  0  0
 20 22  1  0  0  0  0
 20 21  2  0  0  0  0
 22 23  1  0  0  0  0
 22 27  1  1  0  0  0
 23 24  2  0  0  0  0
 23 49  1  0  0  0  0
 24 25  1  0  0  0  0
 24 50  1  0  0  0  0
 25 26  2  0  0  0  0
 27 51  1  0  0  0  0
 27 52  1  0  0  0  0
 27 53  1  0  0  0  0
 28 54  1  0  0  0  0
 28 55  1  0  0  0  0
 28 56  1  0  0  0  0
 29 30  1  0  0  0  0
 29 57  1  0  0  0  0
 29 58  1  0  0  0  0
 30 31  2  0  0  0  0
 30 32  1  0  0  0  0
 32 33  1  0  0  0  0
 33 59  1  0  0  0  0
 33 60  1  0  0  0  0
 33 61  1  0  0  0  0
 34 62  1  0  0  0  0
 34 63  1  0  0  0  0
 34 64  1  0  0  0  0
M  END
$$$$
