Quercetin
 OpenBabel08062623383D

 32 34  0  0  0  0  0  0  0  0999 V2000
   -1.9092    0.5810    0.6250 C   0  0  0  0  0  0  0  0  0  0  0  0
   -0.7000    1.2891    0.6578 C   0  0  0  0  0  0  0  0  0  0  0  0
    0.4288    0.7239    0.0813 C   0  0  0  0  0  0  0  0  0  0  0  0
    0.3580   -0.5365   -0.5074 C   0  0  0  0  0  0  0  0  0  0  0  0
   -0.8394   -1.2450   -0.5504 C   0  0  0  0  0  0  0  0  0  0  0  0
   -1.9936   -0.6820    0.0090 C   0  0  0  0  0  0  0  0  0  0  0  0
   -3.2978   -1.3643   -0.1045 C   0  0  0  0  0  0  0  0  0  0  0  0
   -4.1294   -1.1409   -1.1433 C   0  0  0  0  0  0  0  0  0  0  0  0
   -5.4481   -1.8319   -1.1446 C   0  0  0  0  0  0  0  0  0  0  0  0
   -6.2668   -1.7081   -2.0482 O   0  0  0  0  0  0  0  0  0  0  0  0
   -5.7598   -2.6823    0.0094 C   0  0  0  0  0  0  0  0  0  0  0  0
   -7.0006   -3.3247    0.1249 C   0  0  0  0  0  0  0  0  0  0  0  0
   -7.2848   -4.1136    1.2361 C   0  0  0  0  0  0  0  0  0  0  0  0
   -6.3166   -4.2588    2.2246 C   0  0  0  0  0  0  0  0  0  0  0  0
   -5.0752   -3.6311    2.1167 C   0  0  0  0  0  0  0  0  0  0  0  0
   -4.7979   -2.8335    1.0045 C   0  0  0  0  0  0  0  0  0  0  0  0
   -3.5696   -2.2169    0.9560 O   0  0  0  0  0  0  0  0  0  0  0  0
   -6.5527   -5.0161    3.3343 O   0  0  0  0  0  0  0  0  0  0  0  0
   -7.9892   -3.2165   -0.8168 O   0  0  0  0  0  0  0  0  0  0  0  0
   -3.8569   -0.3095   -2.2137 O   0  0  0  0  0  0  0  0  0  0  0  0
    1.4763   -1.0819   -1.0714 O   0  0  0  0  0  0  0  0  0  0  0  0
    1.6319    1.3726    0.0586 O   0  0  0  0  0  0  0  0  0  0  0  0
   -2.7903    1.0290    1.0807 H   0  0  0  0  0  0  0  0  0  0  0  0
   -0.6670    2.2691    1.1250 H   0  0  0  0  0  0  0  0  0  0  0  0
   -0.8623   -2.2217   -1.0270 H   0  0  0  0  0  0  0  0  0  0  0  0
   -8.2539   -4.5972    1.3097 H   0  0  0  0  0  0  0  0  0  0  0  0
   -4.3357   -3.7614    2.9016 H   0  0  0  0  0  0  0  0  0  0  0  0
   -7.4561   -5.3732    3.2838 H   0  0  0  0  0  0  0  0  0  0  0  0
   -7.6547   -2.6450   -1.5469 H   0  0  0  0  0  0  0  0  0  0  0  0
   -2.9265   -0.0311   -2.1775 H   0  0  0  0  0  0  0  0  0  0  0  0
    2.1799   -0.4187   -0.9246 H   0  0  0  0  0  0  0  0  0  0  0  0
    1.5227    2.2384    0.4894 H   0  0  0  0  0  0  0  0  0  0  0  0
  1  2  2  0  0  0  0
  1  6  1  0  0  0  0
  1 23  1  0  0  0  0
  2  3  1  0  0  0  0
  2 24  1  0  0  0  0
  3  4  2  0  0  0  0
  3 22  1  0  0  0  0
  4  5  1  0  0  0  0
  4 21  1  0  0  0  0
  5  6  2  0  0  0  0
  5 25  1  0  0  0  0
  6  7  1  0  0  0  0
  7  8  2  0  0  0  0
  7 17  1  0  0  0  0
  8  9  1  0  0  0  0
  8 20  1  0  0  0  0
  9 10  2  0  0  0  0
  9 11  1  0  0  0  0
 11 12  2  0  0  0  0
 11 16  1  0  0  0  0
 12 13  1  0  0  0  0
 12 19  1  0  0  0  0
 13 14  2  0  0  0  0
 13 26  1  0  0  0  0
 14 15  1  0  0  0  0
 14 18  1  0  0  0  0
 15 16  2  0  0  0  0
 15 27  1  0  0  0  0
 16 17  1  0  0  0  0
 18 28  1  0  0  0  0
 19 29  1  0  0  0  0
 20 30  1  0  0  0  0
 21 31  1  0  0  0  0
 22 32  1  0  0  0  0
M  END
$$$$
